 INFO
nunit      1    1    1
unit   cell
celltype   convcell
shape   parapipedal
 END_INFO
 DIM-GROUP
           3           1
 PRIMVEC
    2.6982438890   -2.6982438890   12.7091010750
    2.6982438890    2.6982438890   12.7091010750
   -2.6982438890   -2.6982438890   12.7091010750
 CONVVEC
    2.6982438890   -2.6982438890   12.7091010750
    2.6982438890    2.6982438890   12.7091010750
   -2.6982438890   -2.6982438890   12.7091010750
 PRIMCOORD
          28           1
 38      2.6982438890     0.0000000000    14.5646288930     0.0000000000     0.0000000000     0.0000000000
 38      0.0000000000     0.0000000000    20.9191788910     0.0000000000     0.0000000000     0.0000000000
 38      0.0000000000     0.0000000000    17.2081216360     0.0000000000     0.0000000000     0.0000000000
 38      0.0000000000    -2.6982438890    23.5626716340     0.0000000000     0.0000000000     0.0000000000
 38      0.0000000000     0.0000000000     4.4990216400     0.0000000000     0.0000000000     0.0000000000
 38      2.6982438890     0.0000000000    23.5626716340     0.0000000000     0.0000000000     0.0000000000
 38      0.0000000000    -2.6982438890    14.5646288930     0.0000000000     0.0000000000     0.0000000000
 38      0.0000000000     0.0000000000     8.2100788950     0.0000000000     0.0000000000     0.0000000000
 45      2.6982438890     0.0000000000    19.0636505340     0.0000000000     0.0000000000     0.0000000000
 45      0.0000000000     0.0000000000     0.0000000000     0.0000000000     0.0000000000     0.0000000000
 45      0.0000000000     0.0000000000    12.7091005360     0.0000000000     0.0000000000     0.0000000000
 45      0.0000000000    -2.6982438890    19.0636505340     0.0000000000     0.0000000000     0.0000000000
  8      0.0000000000     0.0000000000    10.6883533080     0.0000000000     0.0000000000     0.0000000000
  8      0.0000000000    -2.6982438890    17.0429033060     0.0000000000     0.0000000000     0.0000000000
  8      2.6982438890     0.0000000000    21.0843972210     0.0000000000     0.0000000000     0.0000000000
  8      0.0000000000     0.0000000000     2.0207466880     0.0000000000     0.0000000000     0.0000000000
  8      0.0000000000    -2.6982438890    21.0843972210     0.0000000000     0.0000000000     0.0000000000
  8      0.0000000000     0.0000000000    14.7298472230     0.0000000000     0.0000000000     0.0000000000
  8      0.0000000000     0.0000000000    23.3974538440     0.0000000000     0.0000000000     0.0000000000
  8      2.6982438890     0.0000000000    17.0429033060     0.0000000000     0.0000000000     0.0000000000
  8     -1.1116764820    -1.5865674070    12.7091005360     0.0000000000     0.0000000000     0.0000000000
  8      3.8099203710    -1.1116764820    25.4182005320     0.0000000000     0.0000000000     0.0000000000
  8      1.1116764820     1.1116764820     6.3545499980     0.0000000000     0.0000000000     0.0000000000
  8     -1.1116764820    -1.1116764820     6.3545499980     0.0000000000     0.0000000000     0.0000000000
  8      1.1116764820    -1.1116764820    19.0636505340     0.0000000000     0.0000000000     0.0000000000
  8      1.5865674070    -1.5865674070    31.7727505300     0.0000000000     0.0000000000     0.0000000000
  8      1.5865674070    -1.1116764820    12.7091005360     0.0000000000     0.0000000000     0.0000000000
  8      1.1116764820    -1.5865674070    25.4182005320     0.0000000000     0.0000000000     0.0000000000
 CONVCOORD
          28           1
 38      2.6982438890     0.0000000000    14.5646288930
 38      0.0000000000     0.0000000000    20.9191788910
 38      0.0000000000     0.0000000000    17.2081216360
 38      0.0000000000    -2.6982438890    23.5626716340
 38      0.0000000000     0.0000000000     4.4990216400
 38      2.6982438890     0.0000000000    23.5626716340
 38     -0.0000000000    -2.6982438890    14.5646288930
 38      0.0000000000     0.0000000000     8.2100788950
 45      2.6982438890     0.0000000000    19.0636505340
 45      0.0000000000     0.0000000000     0.0000000000
 45      0.0000000000     0.0000000000    12.7091005360
 45      0.0000000000    -2.6982438890    19.0636505340
  8      0.0000000000     0.0000000000    10.6883533080
  8      0.0000000000    -2.6982438890    17.0429033060
  8      2.6982438890     0.0000000000    21.0843972210
  8      0.0000000000     0.0000000000     2.0207466880
  8      0.0000000000    -2.6982438890    21.0843972210
  8      0.0000000000     0.0000000000    14.7298472230
  8      0.0000000000     0.0000000000    23.3974538440
  8      2.6982438890     0.0000000000    17.0429033060
  8     -1.1116764820    -1.5865674070    12.7091005360
  8      3.8099203710    -1.1116764820    25.4182005320
  8      1.1116764820     1.1116764820     6.3545499980
  8     -1.1116764820    -1.1116764820     6.3545499980
  8      1.1116764820    -1.1116764820    19.0636505340
  8      1.5865674070    -1.5865674070    31.7727505300
  8      1.5865674070    -1.1116764820    12.7091005360
  8      1.1116764820    -1.5865674070    25.4182005320
 RECIP-PRIMVEC
    0.1853057101   -0.1853057101    0.0000000000

    0.0000000000    0.1853057101    0.0393418856

   -0.1853057101    0.0000000000    0.0393418856

 RECIP-CONVVEC
    0.1853057101   -0.1853057101    0.0000000000

    0.0000000000    0.1853057101    0.0393418856

   -0.1853057101    0.0000000000    0.0393418856

 WIGNER-SEITZ-PRIMCELL
           4
 -0.1535829E-15  0.2698244E+01 -0.6354551E+01  -0.2033403E+00  0.2033403E+00 -0.9577607E+00
  0.0000000E+00  0.0000000E+00 -0.6927409E+01  -0.2033403E+00  0.2033403E+00 -0.9577607E+00
 -0.2698244E+01 -0.0000000E+00 -0.6354551E+01  -0.2033403E+00  0.2033403E+00 -0.9577607E+00
 -0.2698244E+01  0.2698244E+01 -0.5781692E+01  -0.2033403E+00  0.2033403E+00 -0.9577607E+00
           6
 -0.2698244E+01 -0.2698244E+01  0.5781692E+01  -0.1000000E+01 -0.1275885E-30  0.7752159E-15
 -0.2698244E+01 -0.0000000E+00  0.6354551E+01  -0.1000000E+01 -0.1275885E-30  0.7752159E-15
 -0.2698244E+01  0.2698244E+01  0.5781692E+01  -0.1000000E+01 -0.1275885E-30  0.7752159E-15
 -0.2698244E+01  0.2698244E+01 -0.5781692E+01  -0.1000000E+01 -0.1275885E-30  0.7752159E-15
 -0.2698244E+01 -0.0000000E+00 -0.6354551E+01  -0.1000000E+01 -0.1275885E-30  0.7752159E-15
 -0.2698244E+01 -0.2698244E+01 -0.5781692E+01  -0.1000000E+01 -0.1275885E-30  0.7752159E-15
           6
  0.2698244E+01  0.2698244E+01 -0.5781692E+01  -0.0000000E+00  0.1000000E+01  0.1149215E-14
 -0.1535829E-15  0.2698244E+01 -0.6354551E+01  -0.0000000E+00  0.1000000E+01  0.1149215E-14
 -0.2698244E+01  0.2698244E+01 -0.5781692E+01  -0.0000000E+00  0.1000000E+01  0.1149215E-14
 -0.2698244E+01  0.2698244E+01  0.5781692E+01  -0.0000000E+00  0.1000000E+01  0.1149215E-14
  0.0000000E+00  0.2698244E+01  0.6354551E+01  -0.0000000E+00  0.1000000E+01  0.1149215E-14
  0.2698244E+01  0.2698244E+01  0.5781692E+01  -0.0000000E+00  0.1000000E+01  0.1149215E-14
           4
 -0.2698244E+01 -0.0000000E+00 -0.6354551E+01  -0.2033403E+00 -0.2033403E+00 -0.9577607E+00
  0.0000000E+00  0.0000000E+00 -0.6927409E+01  -0.2033403E+00 -0.2033403E+00 -0.9577607E+00
  0.0000000E+00 -0.2698244E+01 -0.6354551E+01  -0.2033403E+00 -0.2033403E+00 -0.9577607E+00
 -0.2698244E+01 -0.2698244E+01 -0.5781692E+01  -0.2033403E+00 -0.2033403E+00 -0.9577607E+00
           4
  0.2698244E+01 -0.0000000E+00 -0.6354551E+01   0.2033403E+00  0.2033403E+00 -0.9577607E+00
  0.0000000E+00  0.0000000E+00 -0.6927409E+01   0.2033403E+00  0.2033403E+00 -0.9577607E+00
 -0.1535829E-15  0.2698244E+01 -0.6354551E+01   0.2033403E+00  0.2033403E+00 -0.9577607E+00
  0.2698244E+01  0.2698244E+01 -0.5781692E+01   0.2033403E+00  0.2033403E+00 -0.9577607E+00
           4
  0.0000000E+00 -0.2698244E+01 -0.6354551E+01   0.2033403E+00 -0.2033403E+00 -0.9577607E+00
  0.0000000E+00  0.0000000E+00 -0.6927409E+01   0.2033403E+00 -0.2033403E+00 -0.9577607E+00
  0.2698244E+01 -0.0000000E+00 -0.6354551E+01   0.2033403E+00 -0.2033403E+00 -0.9577607E+00
  0.2698244E+01 -0.2698244E+01 -0.5781692E+01   0.2033403E+00 -0.2033403E+00 -0.9577607E+00
           4
 -0.0000000E+00 -0.0000000E+00  0.6927409E+01  -0.2033403E+00  0.2033403E+00  0.9577607E+00
  0.0000000E+00  0.2698244E+01  0.6354551E+01  -0.2033403E+00  0.2033403E+00  0.9577607E+00
 -0.2698244E+01  0.2698244E+01  0.5781692E+01  -0.2033403E+00  0.2033403E+00  0.9577607E+00
 -0.2698244E+01 -0.0000000E+00  0.6354551E+01  -0.2033403E+00  0.2033403E+00  0.9577607E+00
           4
 -0.0000000E+00 -0.0000000E+00  0.6927409E+01  -0.2033403E+00 -0.2033403E+00  0.9577607E+00
 -0.2698244E+01 -0.0000000E+00  0.6354551E+01  -0.2033403E+00 -0.2033403E+00  0.9577607E+00
 -0.2698244E+01 -0.2698244E+01  0.5781692E+01  -0.2033403E+00 -0.2033403E+00  0.9577607E+00
 -0.1535829E-15 -0.2698244E+01  0.6354551E+01  -0.2033403E+00 -0.2033403E+00  0.9577607E+00
           6
  0.2698244E+01 -0.2698244E+01  0.5781692E+01  -0.8229227E-16 -0.1000000E+01  0.8619116E-15
 -0.1535829E-15 -0.2698244E+01  0.6354551E+01  -0.8229227E-16 -0.1000000E+01  0.8619116E-15
 -0.2698244E+01 -0.2698244E+01  0.5781692E+01  -0.8229227E-16 -0.1000000E+01  0.8619116E-15
 -0.2698244E+01 -0.2698244E+01 -0.5781692E+01  -0.8229227E-16 -0.1000000E+01  0.8619116E-15
  0.0000000E+00 -0.2698244E+01 -0.6354551E+01  -0.8229227E-16 -0.1000000E+01  0.8619116E-15
  0.2698244E+01 -0.2698244E+01 -0.5781692E+01  -0.8229227E-16 -0.1000000E+01  0.8619116E-15
           4
 -0.0000000E+00 -0.0000000E+00  0.6927409E+01   0.2033403E+00  0.2033403E+00  0.9577607E+00
  0.2698244E+01 -0.0000000E+00  0.6354551E+01   0.2033403E+00  0.2033403E+00  0.9577607E+00
  0.2698244E+01  0.2698244E+01  0.5781692E+01   0.2033403E+00  0.2033403E+00  0.9577607E+00
  0.0000000E+00  0.2698244E+01  0.6354551E+01   0.2033403E+00  0.2033403E+00  0.9577607E+00
           6
  0.2698244E+01 -0.2698244E+01 -0.5781692E+01   0.1000000E+01 -0.0000000E+00  0.7752159E-15
  0.2698244E+01 -0.0000000E+00 -0.6354551E+01   0.1000000E+01 -0.0000000E+00  0.7752159E-15
  0.2698244E+01  0.2698244E+01 -0.5781692E+01   0.1000000E+01 -0.0000000E+00  0.7752159E-15
  0.2698244E+01  0.2698244E+01  0.5781692E+01   0.1000000E+01 -0.0000000E+00  0.7752159E-15
  0.2698244E+01 -0.0000000E+00  0.6354551E+01   0.1000000E+01 -0.0000000E+00  0.7752159E-15
  0.2698244E+01 -0.2698244E+01  0.5781692E+01   0.1000000E+01 -0.0000000E+00  0.7752159E-15
           4
 -0.0000000E+00 -0.0000000E+00  0.6927409E+01   0.2033403E+00 -0.2033403E+00  0.9577607E+00
 -0.1535829E-15 -0.2698244E+01  0.6354551E+01   0.2033403E+00 -0.2033403E+00  0.9577607E+00
  0.2698244E+01 -0.2698244E+01  0.5781692E+01   0.2033403E+00 -0.2033403E+00  0.9577607E+00
  0.2698244E+01 -0.0000000E+00  0.6354551E+01   0.2033403E+00 -0.2033403E+00  0.9577607E+00
 WIGNER-SEITZ-PRIMCELL_END
 WIGNER-SEITZ-CONVCELL
           4
 -0.1535829E-15  0.2698244E+01 -0.6354551E+01  -0.2033403E+00  0.2033403E+00 -0.9577607E+00
  0.0000000E+00  0.0000000E+00 -0.6927409E+01  -0.2033403E+00  0.2033403E+00 -0.9577607E+00
 -0.2698244E+01 -0.0000000E+00 -0.6354551E+01  -0.2033403E+00  0.2033403E+00 -0.9577607E+00
 -0.2698244E+01  0.2698244E+01 -0.5781692E+01  -0.2033403E+00  0.2033403E+00 -0.9577607E+00
           6
 -0.2698244E+01 -0.2698244E+01  0.5781692E+01  -0.1000000E+01 -0.1275885E-30  0.7752159E-15
 -0.2698244E+01 -0.0000000E+00  0.6354551E+01  -0.1000000E+01 -0.1275885E-30  0.7752159E-15
 -0.2698244E+01  0.2698244E+01  0.5781692E+01  -0.1000000E+01 -0.1275885E-30  0.7752159E-15
 -0.2698244E+01  0.2698244E+01 -0.5781692E+01  -0.1000000E+01 -0.1275885E-30  0.7752159E-15
 -0.2698244E+01 -0.0000000E+00 -0.6354551E+01  -0.1000000E+01 -0.1275885E-30  0.7752159E-15
 -0.2698244E+01 -0.2698244E+01 -0.5781692E+01  -0.1000000E+01 -0.1275885E-30  0.7752159E-15
           6
  0.2698244E+01  0.2698244E+01 -0.5781692E+01  -0.0000000E+00  0.1000000E+01  0.1149215E-14
 -0.1535829E-15  0.2698244E+01 -0.6354551E+01  -0.0000000E+00  0.1000000E+01  0.1149215E-14
 -0.2698244E+01  0.2698244E+01 -0.5781692E+01  -0.0000000E+00  0.1000000E+01  0.1149215E-14
 -0.2698244E+01  0.2698244E+01  0.5781692E+01  -0.0000000E+00  0.1000000E+01  0.1149215E-14
  0.0000000E+00  0.2698244E+01  0.6354551E+01  -0.0000000E+00  0.1000000E+01  0.1149215E-14
  0.2698244E+01  0.2698244E+01  0.5781692E+01  -0.0000000E+00  0.1000000E+01  0.1149215E-14
           4
 -0.2698244E+01 -0.0000000E+00 -0.6354551E+01  -0.2033403E+00 -0.2033403E+00 -0.9577607E+00
  0.0000000E+00  0.0000000E+00 -0.6927409E+01  -0.2033403E+00 -0.2033403E+00 -0.9577607E+00
  0.0000000E+00 -0.2698244E+01 -0.6354551E+01  -0.2033403E+00 -0.2033403E+00 -0.9577607E+00
 -0.2698244E+01 -0.2698244E+01 -0.5781692E+01  -0.2033403E+00 -0.2033403E+00 -0.9577607E+00
           4
  0.2698244E+01 -0.0000000E+00 -0.6354551E+01   0.2033403E+00  0.2033403E+00 -0.9577607E+00
  0.0000000E+00  0.0000000E+00 -0.6927409E+01   0.2033403E+00  0.2033403E+00 -0.9577607E+00
 -0.1535829E-15  0.2698244E+01 -0.6354551E+01   0.2033403E+00  0.2033403E+00 -0.9577607E+00
  0.2698244E+01  0.2698244E+01 -0.5781692E+01   0.2033403E+00  0.2033403E+00 -0.9577607E+00
           4
  0.0000000E+00 -0.2698244E+01 -0.6354551E+01   0.2033403E+00 -0.2033403E+00 -0.9577607E+00
  0.0000000E+00  0.0000000E+00 -0.6927409E+01   0.2033403E+00 -0.2033403E+00 -0.9577607E+00
  0.2698244E+01 -0.0000000E+00 -0.6354551E+01   0.2033403E+00 -0.2033403E+00 -0.9577607E+00
  0.2698244E+01 -0.2698244E+01 -0.5781692E+01   0.2033403E+00 -0.2033403E+00 -0.9577607E+00
           4
 -0.0000000E+00 -0.0000000E+00  0.6927409E+01  -0.2033403E+00  0.2033403E+00  0.9577607E+00
  0.0000000E+00  0.2698244E+01  0.6354551E+01  -0.2033403E+00  0.2033403E+00  0.9577607E+00
 -0.2698244E+01  0.2698244E+01  0.5781692E+01  -0.2033403E+00  0.2033403E+00  0.9577607E+00
 -0.2698244E+01 -0.0000000E+00  0.6354551E+01  -0.2033403E+00  0.2033403E+00  0.9577607E+00
           4
 -0.0000000E+00 -0.0000000E+00  0.6927409E+01  -0.2033403E+00 -0.2033403E+00  0.9577607E+00
 -0.2698244E+01 -0.0000000E+00  0.6354551E+01  -0.2033403E+00 -0.2033403E+00  0.9577607E+00
 -0.2698244E+01 -0.2698244E+01  0.5781692E+01  -0.2033403E+00 -0.2033403E+00  0.9577607E+00
 -0.1535829E-15 -0.2698244E+01  0.6354551E+01  -0.2033403E+00 -0.2033403E+00  0.9577607E+00
           6
  0.2698244E+01 -0.2698244E+01  0.5781692E+01  -0.8229227E-16 -0.1000000E+01  0.8619116E-15
 -0.1535829E-15 -0.2698244E+01  0.6354551E+01  -0.8229227E-16 -0.1000000E+01  0.8619116E-15
 -0.2698244E+01 -0.2698244E+01  0.5781692E+01  -0.8229227E-16 -0.1000000E+01  0.8619116E-15
 -0.2698244E+01 -0.2698244E+01 -0.5781692E+01  -0.8229227E-16 -0.1000000E+01  0.8619116E-15
  0.0000000E+00 -0.2698244E+01 -0.6354551E+01  -0.8229227E-16 -0.1000000E+01  0.8619116E-15
  0.2698244E+01 -0.2698244E+01 -0.5781692E+01  -0.8229227E-16 -0.1000000E+01  0.8619116E-15
           4
 -0.0000000E+00 -0.0000000E+00  0.6927409E+01   0.2033403E+00  0.2033403E+00  0.9577607E+00
  0.2698244E+01 -0.0000000E+00  0.6354551E+01   0.2033403E+00  0.2033403E+00  0.9577607E+00
  0.2698244E+01  0.2698244E+01  0.5781692E+01   0.2033403E+00  0.2033403E+00  0.9577607E+00
  0.0000000E+00  0.2698244E+01  0.6354551E+01   0.2033403E+00  0.2033403E+00  0.9577607E+00
           6
  0.2698244E+01 -0.2698244E+01 -0.5781692E+01   0.1000000E+01 -0.0000000E+00  0.7752159E-15
  0.2698244E+01 -0.0000000E+00 -0.6354551E+01   0.1000000E+01 -0.0000000E+00  0.7752159E-15
  0.2698244E+01  0.2698244E+01 -0.5781692E+01   0.1000000E+01 -0.0000000E+00  0.7752159E-15
  0.2698244E+01  0.2698244E+01  0.5781692E+01   0.1000000E+01 -0.0000000E+00  0.7752159E-15
  0.2698244E+01 -0.0000000E+00  0.6354551E+01   0.1000000E+01 -0.0000000E+00  0.7752159E-15
  0.2698244E+01 -0.2698244E+01  0.5781692E+01   0.1000000E+01 -0.0000000E+00  0.7752159E-15
           4
 -0.0000000E+00 -0.0000000E+00  0.6927409E+01   0.2033403E+00 -0.2033403E+00  0.9577607E+00
 -0.1535829E-15 -0.2698244E+01  0.6354551E+01   0.2033403E+00 -0.2033403E+00  0.9577607E+00
  0.2698244E+01 -0.2698244E+01  0.5781692E+01   0.2033403E+00 -0.2033403E+00  0.9577607E+00
  0.2698244E+01 -0.0000000E+00  0.6354551E+01   0.2033403E+00 -0.2033403E+00  0.9577607E+00
 WIGNER-SEITZ-CONVCELL_END
 BRILLOUIN-ZONE-PRIMCELL
           4
 -0.8847656E-01 -0.8847656E-01 -0.3934189E-01   0.1026377E-16  0.0000000E+00 -0.1000000E+01
 -0.8847656E-01  0.8847656E-01 -0.3934189E-01   0.1026377E-16  0.0000000E+00 -0.1000000E+01
  0.8847656E-01  0.8847656E-01 -0.3934189E-01   0.1026377E-16  0.0000000E+00 -0.1000000E+01
  0.8847656E-01 -0.8847656E-01 -0.3934189E-01   0.1026377E-16  0.0000000E+00 -0.1000000E+01
           6
 -0.9682915E-01 -0.8847656E-01 -0.4012800E-16  -0.9781970E+00  0.0000000E+00 -0.2076791E+00
 -0.9682915E-01  0.8847656E-01 -0.4012800E-16  -0.9781970E+00  0.0000000E+00 -0.2076791E+00
 -0.9265286E-01  0.9265286E-01 -0.1967094E-01  -0.9781970E+00  0.0000000E+00 -0.2076791E+00
 -0.8847656E-01  0.8847656E-01 -0.3934189E-01  -0.9781970E+00  0.0000000E+00 -0.2076791E+00
 -0.8847656E-01 -0.8847656E-01 -0.3934189E-01  -0.9781970E+00  0.0000000E+00 -0.2076791E+00
 -0.9265286E-01 -0.9265286E-01 -0.1967094E-01  -0.9781970E+00  0.0000000E+00 -0.2076791E+00
           6
  0.9265286E-01  0.9265286E-01 -0.1967094E-01  -0.7562683E-16  0.9781970E+00 -0.2076791E+00
  0.8847656E-01  0.8847656E-01 -0.3934189E-01  -0.7562683E-16  0.9781970E+00 -0.2076791E+00
 -0.8847656E-01  0.8847656E-01 -0.3934189E-01  -0.7562683E-16  0.9781970E+00 -0.2076791E+00
 -0.9265286E-01  0.9265286E-01 -0.1967094E-01  -0.7562683E-16  0.9781970E+00 -0.2076791E+00
 -0.8847656E-01  0.9682915E-01  0.4012800E-16  -0.7562683E-16  0.9781970E+00 -0.2076791E+00
  0.8847656E-01  0.9682915E-01  0.4012800E-16  -0.7562683E-16  0.9781970E+00 -0.2076791E+00
           6
  0.8847656E-01 -0.9682915E-01  0.4012800E-16  -0.7562683E-16 -0.9781970E+00 -0.2076791E+00
 -0.8847656E-01 -0.9682915E-01  0.4012800E-16  -0.7562683E-16 -0.9781970E+00 -0.2076791E+00
 -0.9265286E-01 -0.9265286E-01 -0.1967094E-01  -0.7562683E-16 -0.9781970E+00 -0.2076791E+00
 -0.8847656E-01 -0.8847656E-01 -0.3934189E-01  -0.7562683E-16 -0.9781970E+00 -0.2076791E+00
  0.8847656E-01 -0.8847656E-01 -0.3934189E-01  -0.7562683E-16 -0.9781970E+00 -0.2076791E+00
  0.9265286E-01 -0.9265286E-01 -0.1967094E-01  -0.7562683E-16 -0.9781970E+00 -0.2076791E+00
           6
  0.9265286E-01 -0.9265286E-01 -0.1967094E-01   0.9781970E+00 -0.0000000E+00 -0.2076791E+00
  0.8847656E-01 -0.8847656E-01 -0.3934189E-01   0.9781970E+00 -0.0000000E+00 -0.2076791E+00
  0.8847656E-01  0.8847656E-01 -0.3934189E-01   0.9781970E+00 -0.0000000E+00 -0.2076791E+00
  0.9265286E-01  0.9265286E-01 -0.1967094E-01   0.9781970E+00 -0.0000000E+00 -0.2076791E+00
  0.9682915E-01  0.8847656E-01 -0.4012800E-16   0.9781970E+00 -0.0000000E+00 -0.2076791E+00
  0.9682915E-01 -0.8847656E-01 -0.4012800E-16   0.9781970E+00 -0.0000000E+00 -0.2076791E+00
           4
 -0.9265286E-01  0.9265286E-01  0.1967094E-01  -0.7071068E+00  0.7071068E+00  0.2333021E-15
 -0.8847656E-01  0.9682915E-01  0.4012800E-16  -0.7071068E+00  0.7071068E+00  0.2333021E-15
 -0.9265286E-01  0.9265286E-01 -0.1967094E-01  -0.7071068E+00  0.7071068E+00  0.2333021E-15
 -0.9682915E-01  0.8847656E-01 -0.4012800E-16  -0.7071068E+00  0.7071068E+00  0.2333021E-15
           6
 -0.8847656E-01 -0.8847656E-01  0.3934189E-01  -0.9781970E+00  0.0000000E+00  0.2076791E+00
 -0.8847656E-01  0.8847656E-01  0.3934189E-01  -0.9781970E+00  0.0000000E+00  0.2076791E+00
 -0.9265286E-01  0.9265286E-01  0.1967094E-01  -0.9781970E+00  0.0000000E+00  0.2076791E+00
 -0.9682915E-01  0.8847656E-01 -0.4012800E-16  -0.9781970E+00  0.0000000E+00  0.2076791E+00
 -0.9682915E-01 -0.8847656E-01 -0.4012800E-16  -0.9781970E+00  0.0000000E+00  0.2076791E+00
 -0.9265286E-01 -0.9265286E-01  0.1967094E-01  -0.9781970E+00  0.0000000E+00  0.2076791E+00
           4
 -0.9682915E-01 -0.8847656E-01 -0.4012800E-16  -0.7071068E+00 -0.7071068E+00  0.2333021E-15
 -0.9265286E-01 -0.9265286E-01 -0.1967094E-01  -0.7071068E+00 -0.7071068E+00  0.2333021E-15
 -0.8847656E-01 -0.9682915E-01  0.4012800E-16  -0.7071068E+00 -0.7071068E+00  0.2333021E-15
 -0.9265286E-01 -0.9265286E-01  0.1967094E-01  -0.7071068E+00 -0.7071068E+00  0.2333021E-15
           6
  0.9265286E-01  0.9265286E-01  0.1967094E-01  -0.0000000E+00  0.9781970E+00  0.2076791E+00
  0.8847656E-01  0.9682915E-01  0.4012800E-16  -0.0000000E+00  0.9781970E+00  0.2076791E+00
 -0.8847656E-01  0.9682915E-01  0.4012800E-16  -0.0000000E+00  0.9781970E+00  0.2076791E+00
 -0.9265286E-01  0.9265286E-01  0.1967094E-01  -0.0000000E+00  0.9781970E+00  0.2076791E+00
 -0.8847656E-01  0.8847656E-01  0.3934189E-01  -0.0000000E+00  0.9781970E+00  0.2076791E+00
  0.8847656E-01  0.8847656E-01  0.3934189E-01  -0.0000000E+00  0.9781970E+00  0.2076791E+00
           4
  0.9265286E-01  0.9265286E-01  0.1967094E-01   0.7071068E+00  0.7071068E+00  0.2333021E-15
  0.9682915E-01  0.8847656E-01 -0.4012800E-16   0.7071068E+00  0.7071068E+00  0.2333021E-15
  0.9265286E-01  0.9265286E-01 -0.1967094E-01   0.7071068E+00  0.7071068E+00  0.2333021E-15
  0.8847656E-01  0.9682915E-01  0.4012800E-16   0.7071068E+00  0.7071068E+00  0.2333021E-15
           6
  0.8847656E-01 -0.8847656E-01  0.3934189E-01   0.0000000E+00 -0.9781970E+00  0.2076791E+00
 -0.8847656E-01 -0.8847656E-01  0.3934189E-01   0.0000000E+00 -0.9781970E+00  0.2076791E+00
 -0.9265286E-01 -0.9265286E-01  0.1967094E-01   0.0000000E+00 -0.9781970E+00  0.2076791E+00
 -0.8847656E-01 -0.9682915E-01  0.4012800E-16   0.0000000E+00 -0.9781970E+00  0.2076791E+00
  0.8847656E-01 -0.9682915E-01  0.4012800E-16   0.0000000E+00 -0.9781970E+00  0.2076791E+00
  0.9265286E-01 -0.9265286E-01  0.1967094E-01   0.0000000E+00 -0.9781970E+00  0.2076791E+00
           4
  0.8847656E-01 -0.9682915E-01  0.4012800E-16   0.7071068E+00 -0.7071068E+00  0.2333021E-15
  0.9265286E-01 -0.9265286E-01 -0.1967094E-01   0.7071068E+00 -0.7071068E+00  0.2333021E-15
  0.9682915E-01 -0.8847656E-01 -0.4012800E-16   0.7071068E+00 -0.7071068E+00  0.2333021E-15
  0.9265286E-01 -0.9265286E-01  0.1967094E-01   0.7071068E+00 -0.7071068E+00  0.2333021E-15
           6
  0.9265286E-01 -0.9265286E-01  0.1967094E-01   0.9781970E+00 -0.0000000E+00  0.2076791E+00
  0.9682915E-01 -0.8847656E-01 -0.4012800E-16   0.9781970E+00 -0.0000000E+00  0.2076791E+00
  0.9682915E-01  0.8847656E-01 -0.4012800E-16   0.9781970E+00 -0.0000000E+00  0.2076791E+00
  0.9265286E-01  0.9265286E-01  0.1967094E-01   0.9781970E+00 -0.0000000E+00  0.2076791E+00
  0.8847656E-01  0.8847656E-01  0.3934189E-01   0.9781970E+00 -0.0000000E+00  0.2076791E+00
  0.8847656E-01 -0.8847656E-01  0.3934189E-01   0.9781970E+00 -0.0000000E+00  0.2076791E+00
           4
  0.8847656E-01 -0.8847656E-01  0.3934189E-01   0.1026377E-16 -0.0000000E+00  0.1000000E+01
  0.8847656E-01  0.8847656E-01  0.3934189E-01   0.1026377E-16 -0.0000000E+00  0.1000000E+01
 -0.8847656E-01  0.8847656E-01  0.3934189E-01   0.1026377E-16 -0.0000000E+00  0.1000000E+01
 -0.8847656E-01 -0.8847656E-01  0.3934189E-01   0.1026377E-16 -0.0000000E+00  0.1000000E+01
 BRILLOUIN-ZONE-PRIMCELL_END
 BRILLOUIN-ZONE-CONVCELL
           4
 -0.8847656E-01 -0.8847656E-01 -0.3934189E-01   0.1026377E-16  0.0000000E+00 -0.1000000E+01
 -0.8847656E-01  0.8847656E-01 -0.3934189E-01   0.1026377E-16  0.0000000E+00 -0.1000000E+01
  0.8847656E-01  0.8847656E-01 -0.3934189E-01   0.1026377E-16  0.0000000E+00 -0.1000000E+01
  0.8847656E-01 -0.8847656E-01 -0.3934189E-01   0.1026377E-16  0.0000000E+00 -0.1000000E+01
           6
 -0.9682915E-01 -0.8847656E-01 -0.4012800E-16  -0.9781970E+00  0.0000000E+00 -0.2076791E+00
 -0.9682915E-01  0.8847656E-01 -0.4012800E-16  -0.9781970E+00  0.0000000E+00 -0.2076791E+00
 -0.9265286E-01  0.9265286E-01 -0.1967094E-01  -0.9781970E+00  0.0000000E+00 -0.2076791E+00
 -0.8847656E-01  0.8847656E-01 -0.3934189E-01  -0.9781970E+00  0.0000000E+00 -0.2076791E+00
 -0.8847656E-01 -0.8847656E-01 -0.3934189E-01  -0.9781970E+00  0.0000000E+00 -0.2076791E+00
 -0.9265286E-01 -0.9265286E-01 -0.1967094E-01  -0.9781970E+00  0.0000000E+00 -0.2076791E+00
           6
  0.9265286E-01  0.9265286E-01 -0.1967094E-01  -0.7562683E-16  0.9781970E+00 -0.2076791E+00
  0.8847656E-01  0.8847656E-01 -0.3934189E-01  -0.7562683E-16  0.9781970E+00 -0.2076791E+00
 -0.8847656E-01  0.8847656E-01 -0.3934189E-01  -0.7562683E-16  0.9781970E+00 -0.2076791E+00
 -0.9265286E-01  0.9265286E-01 -0.1967094E-01  -0.7562683E-16  0.9781970E+00 -0.2076791E+00
 -0.8847656E-01  0.9682915E-01  0.4012800E-16  -0.7562683E-16  0.9781970E+00 -0.2076791E+00
  0.8847656E-01  0.9682915E-01  0.4012800E-16  -0.7562683E-16  0.9781970E+00 -0.2076791E+00
           6
  0.8847656E-01 -0.9682915E-01  0.4012800E-16  -0.7562683E-16 -0.9781970E+00 -0.2076791E+00
 -0.8847656E-01 -0.9682915E-01  0.4012800E-16  -0.7562683E-16 -0.9781970E+00 -0.2076791E+00
 -0.9265286E-01 -0.9265286E-01 -0.1967094E-01  -0.7562683E-16 -0.9781970E+00 -0.2076791E+00
 -0.8847656E-01 -0.8847656E-01 -0.3934189E-01  -0.7562683E-16 -0.9781970E+00 -0.2076791E+00
  0.8847656E-01 -0.8847656E-01 -0.3934189E-01  -0.7562683E-16 -0.9781970E+00 -0.2076791E+00
  0.9265286E-01 -0.9265286E-01 -0.1967094E-01  -0.7562683E-16 -0.9781970E+00 -0.2076791E+00
           6
  0.9265286E-01 -0.9265286E-01 -0.1967094E-01   0.9781970E+00 -0.0000000E+00 -0.2076791E+00
  0.8847656E-01 -0.8847656E-01 -0.3934189E-01   0.9781970E+00 -0.0000000E+00 -0.2076791E+00
  0.8847656E-01  0.8847656E-01 -0.3934189E-01   0.9781970E+00 -0.0000000E+00 -0.2076791E+00
  0.9265286E-01  0.9265286E-01 -0.1967094E-01   0.9781970E+00 -0.0000000E+00 -0.2076791E+00
  0.9682915E-01  0.8847656E-01 -0.4012800E-16   0.9781970E+00 -0.0000000E+00 -0.2076791E+00
  0.9682915E-01 -0.8847656E-01 -0.4012800E-16   0.9781970E+00 -0.0000000E+00 -0.2076791E+00
           4
 -0.9265286E-01  0.9265286E-01  0.1967094E-01  -0.7071068E+00  0.7071068E+00  0.2333021E-15
 -0.8847656E-01  0.9682915E-01  0.4012800E-16  -0.7071068E+00  0.7071068E+00  0.2333021E-15
 -0.9265286E-01  0.9265286E-01 -0.1967094E-01  -0.7071068E+00  0.7071068E+00  0.2333021E-15
 -0.9682915E-01  0.8847656E-01 -0.4012800E-16  -0.7071068E+00  0.7071068E+00  0.2333021E-15
           6
 -0.8847656E-01 -0.8847656E-01  0.3934189E-01  -0.9781970E+00  0.0000000E+00  0.2076791E+00
 -0.8847656E-01  0.8847656E-01  0.3934189E-01  -0.9781970E+00  0.0000000E+00  0.2076791E+00
 -0.9265286E-01  0.9265286E-01  0.1967094E-01  -0.9781970E+00  0.0000000E+00  0.2076791E+00
 -0.9682915E-01  0.8847656E-01 -0.4012800E-16  -0.9781970E+00  0.0000000E+00  0.2076791E+00
 -0.9682915E-01 -0.8847656E-01 -0.4012800E-16  -0.9781970E+00  0.0000000E+00  0.2076791E+00
 -0.9265286E-01 -0.9265286E-01  0.1967094E-01  -0.9781970E+00  0.0000000E+00  0.2076791E+00
           4
 -0.9682915E-01 -0.8847656E-01 -0.4012800E-16  -0.7071068E+00 -0.7071068E+00  0.2333021E-15
 -0.9265286E-01 -0.9265286E-01 -0.1967094E-01  -0.7071068E+00 -0.7071068E+00  0.2333021E-15
 -0.8847656E-01 -0.9682915E-01  0.4012800E-16  -0.7071068E+00 -0.7071068E+00  0.2333021E-15
 -0.9265286E-01 -0.9265286E-01  0.1967094E-01  -0.7071068E+00 -0.7071068E+00  0.2333021E-15
           6
  0.9265286E-01  0.9265286E-01  0.1967094E-01  -0.0000000E+00  0.9781970E+00  0.2076791E+00
  0.8847656E-01  0.9682915E-01  0.4012800E-16  -0.0000000E+00  0.9781970E+00  0.2076791E+00
 -0.8847656E-01  0.9682915E-01  0.4012800E-16  -0.0000000E+00  0.9781970E+00  0.2076791E+00
 -0.9265286E-01  0.9265286E-01  0.1967094E-01  -0.0000000E+00  0.9781970E+00  0.2076791E+00
 -0.8847656E-01  0.8847656E-01  0.3934189E-01  -0.0000000E+00  0.9781970E+00  0.2076791E+00
  0.8847656E-01  0.8847656E-01  0.3934189E-01  -0.0000000E+00  0.9781970E+00  0.2076791E+00
           4
  0.9265286E-01  0.9265286E-01  0.1967094E-01   0.7071068E+00  0.7071068E+00  0.2333021E-15
  0.9682915E-01  0.8847656E-01 -0.4012800E-16   0.7071068E+00  0.7071068E+00  0.2333021E-15
  0.9265286E-01  0.9265286E-01 -0.1967094E-01   0.7071068E+00  0.7071068E+00  0.2333021E-15
  0.8847656E-01  0.9682915E-01  0.4012800E-16   0.7071068E+00  0.7071068E+00  0.2333021E-15
           6
  0.8847656E-01 -0.8847656E-01  0.3934189E-01   0.0000000E+00 -0.9781970E+00  0.2076791E+00
 -0.8847656E-01 -0.8847656E-01  0.3934189E-01   0.0000000E+00 -0.9781970E+00  0.2076791E+00
 -0.9265286E-01 -0.9265286E-01  0.1967094E-01   0.0000000E+00 -0.9781970E+00  0.2076791E+00
 -0.8847656E-01 -0.9682915E-01  0.4012800E-16   0.0000000E+00 -0.9781970E+00  0.2076791E+00
  0.8847656E-01 -0.9682915E-01  0.4012800E-16   0.0000000E+00 -0.9781970E+00  0.2076791E+00
  0.9265286E-01 -0.9265286E-01  0.1967094E-01   0.0000000E+00 -0.9781970E+00  0.2076791E+00
           4
  0.8847656E-01 -0.9682915E-01  0.4012800E-16   0.7071068E+00 -0.7071068E+00  0.2333021E-15
  0.9265286E-01 -0.9265286E-01 -0.1967094E-01   0.7071068E+00 -0.7071068E+00  0.2333021E-15
  0.9682915E-01 -0.8847656E-01 -0.4012800E-16   0.7071068E+00 -0.7071068E+00  0.2333021E-15
  0.9265286E-01 -0.9265286E-01  0.1967094E-01   0.7071068E+00 -0.7071068E+00  0.2333021E-15
           6
  0.9265286E-01 -0.9265286E-01  0.1967094E-01   0.9781970E+00 -0.0000000E+00  0.2076791E+00
  0.9682915E-01 -0.8847656E-01 -0.4012800E-16   0.9781970E+00 -0.0000000E+00  0.2076791E+00
  0.9682915E-01  0.8847656E-01 -0.4012800E-16   0.9781970E+00 -0.0000000E+00  0.2076791E+00
  0.9265286E-01  0.9265286E-01  0.1967094E-01   0.9781970E+00 -0.0000000E+00  0.2076791E+00
  0.8847656E-01  0.8847656E-01  0.3934189E-01   0.9781970E+00 -0.0000000E+00  0.2076791E+00
  0.8847656E-01 -0.8847656E-01  0.3934189E-01   0.9781970E+00 -0.0000000E+00  0.2076791E+00
           4
  0.8847656E-01 -0.8847656E-01  0.3934189E-01   0.1026377E-16 -0.0000000E+00  0.1000000E+01
  0.8847656E-01  0.8847656E-01  0.3934189E-01   0.1026377E-16 -0.0000000E+00  0.1000000E+01
 -0.8847656E-01  0.8847656E-01  0.3934189E-01   0.1026377E-16 -0.0000000E+00  0.1000000E+01
 -0.8847656E-01 -0.8847656E-01  0.3934189E-01   0.1026377E-16 -0.0000000E+00  0.1000000E+01
 BRILLOUIN-ZONE-CONVCELL_END
 ATOMS
   38    2.6982438890    0.0000000000   14.5646288930    0.0000000000    0.0000000000    0.0000000000
   38    0.0000000000    0.0000000000   20.9191788910    0.0000000000    0.0000000000    0.0000000000
   38    0.0000000000    0.0000000000   17.2081216360    0.0000000000    0.0000000000    0.0000000000
   38    0.0000000000   -2.6982438890   23.5626716340    0.0000000000    0.0000000000    0.0000000000
   38    0.0000000000    0.0000000000    4.4990216400    0.0000000000    0.0000000000    0.0000000000
   38    2.6982438890    0.0000000000   23.5626716340    0.0000000000    0.0000000000    0.0000000000
   38   -0.0000000000   -2.6982438890   14.5646288930    0.0000000000    0.0000000000    0.0000000000
   38    0.0000000000    0.0000000000    8.2100788950    0.0000000000    0.0000000000    0.0000000000
   45    2.6982438890    0.0000000000   19.0636505340    0.0000000000    0.0000000000    0.0000000000
   45    0.0000000000    0.0000000000    0.0000000000    0.0000000000    0.0000000000    0.0000000000
   45    0.0000000000    0.0000000000   12.7091005360    0.0000000000    0.0000000000    0.0000000000
   45    0.0000000000   -2.6982438890   19.0636505340    0.0000000000    0.0000000000    0.0000000000
    8    0.0000000000    0.0000000000   10.6883533080    0.0000000000    0.0000000000    0.0000000000
    8    0.0000000000   -2.6982438890   17.0429033060    0.0000000000    0.0000000000    0.0000000000
    8    2.6982438890    0.0000000000   21.0843972210    0.0000000000    0.0000000000    0.0000000000
    8    0.0000000000    0.0000000000    2.0207466880    0.0000000000    0.0000000000    0.0000000000
    8    0.0000000000   -2.6982438890   21.0843972210    0.0000000000    0.0000000000    0.0000000000
    8    0.0000000000    0.0000000000   14.7298472230    0.0000000000    0.0000000000    0.0000000000
    8    0.0000000000    0.0000000000   23.3974538440    0.0000000000    0.0000000000    0.0000000000
    8    2.6982438890    0.0000000000   17.0429033060    0.0000000000    0.0000000000    0.0000000000
    8   -1.1116764820   -1.5865674070   12.7091005360    0.0000000000    0.0000000000    0.0000000000
    8    3.8099203710   -1.1116764820   25.4182005320    0.0000000000    0.0000000000    0.0000000000
    8    1.1116764820    1.1116764820    6.3545499980    0.0000000000    0.0000000000    0.0000000000
    8   -1.1116764820   -1.1116764820    6.3545499980    0.0000000000    0.0000000000    0.0000000000
    8    1.1116764820   -1.1116764820   19.0636505340    0.0000000000    0.0000000000    0.0000000000
    8    1.5865674070   -1.5865674070   31.7727505300    0.0000000000    0.0000000000    0.0000000000
    8    1.5865674070   -1.1116764820   12.7091005360    0.0000000000    0.0000000000    0.0000000000
    8    1.1116764820   -1.5865674070   25.4182005320    0.0000000000    0.0000000000    0.0000000000
   45   -2.6982438890   -2.6982438890   12.7091010750    0.0000000000    0.0000000000    0.0000000000
   45    2.6982438890    2.6982438890   12.7091010750    0.0000000000    0.0000000000    0.0000000000
   45    0.0000000000    0.0000000000   25.4182021500    0.0000000000    0.0000000000    0.0000000000
   38    2.6982438890   -2.6982438890   33.6282799660    0.0000000000    0.0000000000    0.0000000000
   38    2.6982438890   -2.6982438890   29.9172227110    0.0000000000    0.0000000000    0.0000000000
   38    2.6982438890   -2.6982438890   17.2081227150    0.0000000000    0.0000000000    0.0000000000
   38    2.6982438890   -2.6982438890   20.9191799700    0.0000000000    0.0000000000    0.0000000000
   45    2.6982438890   -2.6982438890   12.7091010750    0.0000000000    0.0000000000    0.0000000000
   45    2.6982438890   -2.6982438890   25.4182016110    0.0000000000    0.0000000000    0.0000000000
    8    2.6982438890   -2.6982438890   23.3974543830    0.0000000000    0.0000000000    0.0000000000
    8    2.6982438890   -2.6982438890   14.7298477630    0.0000000000    0.0000000000    0.0000000000
    8    2.6982438890   -2.6982438890   27.4389482980    0.0000000000    0.0000000000    0.0000000000
    8    2.6982438890   -2.6982438890   36.1065549190    0.0000000000    0.0000000000    0.0000000000
    8    3.8099203710   -1.5865674070   19.0636510730    0.0000000000    0.0000000000    0.0000000000
    8    1.5865674070   -3.8099203710   19.0636510730    0.0000000000    0.0000000000    0.0000000000
   45    0.0000000000   -5.3964877780   25.4182021500    0.0000000000    0.0000000000    0.0000000000
   45    5.3964877780    0.0000000000   25.4182021500    0.0000000000    0.0000000000    0.0000000000
   45    2.6982438890   -2.6982438890   38.1273032250    0.0000000000    0.0000000000    0.0000000000
 FRAMES
1      0.0000000000    0.0000000000    0.0000000000      2.6982438890   -2.6982438890   12.7091010750
1      0.0000000000    0.0000000000    0.0000000000      2.6982438890    2.6982438890   12.7091010750
1      0.0000000000    0.0000000000    0.0000000000     -2.6982438890   -2.6982438890   12.7091010750
1     -2.6982438890   -2.6982438890   12.7091010750      0.0000000000   -5.3964877780   25.4182021500
1     -2.6982438890   -2.6982438890   12.7091010750      0.0000000000    0.0000000000   25.4182021500
1      2.6982438890    2.6982438890   12.7091010750      5.3964877780    0.0000000000   25.4182021500
1      2.6982438890    2.6982438890   12.7091010750      0.0000000000    0.0000000000   25.4182021500
1      0.0000000000    0.0000000000   25.4182021500      2.6982438890   -2.6982438890   38.1273032250
1      2.6982438890   -2.6982438890   12.7091010750      5.3964877780    0.0000000000   25.4182021500
1      2.6982438890   -2.6982438890   12.7091010750      0.0000000000   -5.3964877780   25.4182021500
1      0.0000000000   -5.3964877780   25.4182021500      2.6982438890   -2.6982438890   38.1273032250
1      5.3964877780    0.0000000000   25.4182021500      2.6982438890   -2.6982438890   38.1273032250
